35
Energy (POTENTIAL) = -504.298154258 Eh
O   -6.4830    2.9667    -3.5701
H   -4.3507    2.6624    -3.6094
H   -6.5667    3.8216    -4.0063
H   -6.5730    3.1655    -2.6028
H   -5.8689    3.3299    -0.3420
H   -7.4378    2.9145    -0.4254
H   -3.0599    1.8314    -3.0758
C   -3.1585    3.7407    -2.3588
H   -3.7112    3.5027    -1.4384
H   -3.5620    4.6906    -2.7181
C   -1.6855    3.9192    -2.0143
H   -1.1362    4.1807    -2.9239
H   -1.2789    2.9607    -1.6716
C   -1.4465    4.9819    -0.9420
H   -2.0129    4.7223    -0.0422
H   -1.8472    5.9393    -1.2896
C   0.0286     5.1467    -0.5829
H   0.1724     5.9150    0.1794
H   0.4456     4.2133    -0.1967
H   0.6168     5.4328    -1.4582
N   -3.3546    2.7413    -3.4166
C   -7.1158    4.9391    -0.6190
H   -7.2820    5.1706    0.4399
H   -8.0636    5.1076    -1.1359
C   -6.0521    5.8729    -1.1809
H   -5.8914    5.6365    -2.2364
H   -5.1013    5.6764    -0.6750
C   -6.4065    7.3513    -1.0348
H   -7.3514    7.5490    -1.5500
H   -6.5777    7.5815    0.0211
C   -5.3207    8.2715    -1.5886
H   -5.1487    8.0812    -2.6507
H   -5.5923    9.3231    -1.4789
H   -4.3720    8.1169    -1.0689
N   -6.7381    3.5294    -0.8271
