14
 energy: -22.083959597103 gnorm: 0.000151421997 xtb: 6.3.0 (49875a8)
C        -2.43540569720689    1.86965478686828    0.00000521511869
C        -2.61748448346020    0.50025991458453    0.00000821750669
C        -1.51819035014853   -0.34653612934489    0.00000592064529
C        -0.23198025424483    0.17461000075839    0.00000055437359
C        -0.04309110457288    1.54223622580844   -0.00000253276053
C        -1.14451830164311    2.40323854162622   -0.00000025216374
H        -3.28634844448113    2.53546106086015    0.00000705031076
H        -3.61570252359128    0.08849142308723    0.00001241578637
H        -1.66449668295293   -1.41656992160636    0.00000828713227
H         0.62050995424693   -0.48806641401775   -0.00000124113323
H         0.94775645538471    1.97273058044419   -0.00000675526385
C        -0.94814087210734    3.85015046991206   -0.00000357734609
O         0.12117128126740    4.42161836214630   -0.00000825280588
H        -1.88975618361718    4.43462380584476   -0.00000084208502
