16
 energy: -17.089806246645 gnorm: 0.000383385693 xtb: 6.3.0 (49875a8)
N        -1.65903445093775    2.70296066762230    0.19204167129391
C        -0.79219582431452    1.53289263698142    0.11876211393355
C        -1.63349175160209    0.26305861847283    0.00884203350989
H        -0.20546843603253    1.50519046303305    1.04220438602319
H        -0.08372327043291    1.57424732497861   -0.72742500189216
C        -0.77691507261090   -1.00055735693532    0.00833894111155
H        -2.22187742849336    0.30443168443231   -0.91178718774213
H        -2.33237532628043    0.23844716916242    0.84686282337473
H        -1.10199599352172    3.54769491421900    0.26817437188365
H        -2.20989875137028    2.77693299658153   -0.65801025573204
C        -1.62831621735949   -2.26037666754933   -0.09945133380923
H        -0.18834629184160   -1.03730303896957    0.92811050066909
H        -0.07664475938516   -0.96233243556095   -0.83017283504610
H        -2.31548648945379   -2.32901361902721    0.74117505285908
H        -0.99907778042195   -3.14779821583635   -0.10264274803345
H        -2.21207519498246   -2.25047847057275   -1.01773373855663
