46
Energy (POTENTIAL) = -773.545187223 Eh
C    0.6180    1.9599    -1.6191
C    0.1379    1.5084    -0.3970
C    0.8163    0.5039    0.2958
C    1.9838    -0.0454   -0.2426
C    2.4628    0.4061    -1.4622
C    1.7799    1.4083    -2.1512
H    -0.7703   1.9230    0.0220
H    2.5059    -0.8173   0.3064
H    2.1560    1.7593    -3.1033
N    -2.0774   -1.4633   0.5412
H    -1.3578   -2.1218   0.2476
C    -2.5938   -1.8380   1.8614
H    -3.0502   -2.8383   1.8755
H    -1.7450   -1.8736   2.5485
H    -2.8213   -1.5049   -0.1474
H    0.9058    -2.5903   0.7699
C    0.2867    0.0416    1.5917
H    -0.5885   0.5994    1.9616
O    0.7662    -0.8632   2.2503
C    -3.6113   -0.8220   2.3679
H    -3.1466   0.1689    2.3770
H    -4.4450   -0.7654   1.6586
C    -4.1509   -1.1511   3.7590
H    -4.6172   -2.1409   3.7416
H    -3.3143   -1.2191   4.4612
H    3.3671    -0.0163   -1.8798
H    0.0902    2.7363    -2.1565
H    1.0786    -3.6948   -0.4130
C    0.2378    -4.4455   1.3002
H    -0.2596   -5.2785   0.7957
H    -0.4648   -4.0730   2.0497
C    1.5011    -4.9498   1.9992
H    2.2003    -5.3259   1.2442
H    1.9942    -4.1019   2.4860
C    1.2247    -6.0417   3.0322
H    0.7277    -6.8846   2.5420
H    0.5185    -5.6603   3.7761
N    0.4502    -3.3763   0.3171
C    2.4880    -6.5343   3.7349
H    2.2616    -7.3118   4.4674
H    3.2000    -6.9508   3.0182
H    2.9889    -5.7177   4.2606
C    -5.1587   -0.1227   4.2673
H    -5.5324   -0.3846   5.2592
H    -4.7078   0.8704    4.3341
H    -6.0188   -0.0493   3.5972
