33
Energy (POTENTIAL) = -636.108992967 Eh
C   0.4664    1.5702     -1.8626
C   -0.1796   1.3625     -0.6517
C   0.3580    0.4811     0.2893
C   1.5514    -0.1926    0.0097
C   2.1943    0.0147     -1.2000
C   1.6529    0.8955     -2.1363
H   -1.1063   1.8771     -0.4297
H   1.9643    -0.8722    0.7416
H   2.1589    1.0555     -3.0794
N   -2.1984   -1.6968    0.5148
H   -1.3583   -2.2562    0.4097
C   -2.8896   -2.0696    1.7534
H   -3.2084   -3.1217    1.7647
H   -2.1785   -1.9473    2.5735
H   -2.7881   -1.8860    -0.2885
H   0.1463    -3.6919    2.1704
H   0.4575    -2.2089    1.9414
C   -0.3471   0.2867     1.5650
H   -1.2404   0.9151     1.7036
O   0.0145    -0.4656    2.4567
C   -4.1004   -1.1780    2.0017
H   -3.7703   -0.1350    2.0297
H   -4.7899   -1.2623    1.1541
O   0.5244    -3.0851    1.5242
C   -4.8415   -1.5185    3.2936
H   -5.1801   -2.5583    3.2538
H   -4.1441   -1.4549    4.1346
H   3.1168    -0.5063    -1.4185
H   0.0493    2.2525     -2.5909
C   -6.0360   -0.6031    3.5537
H   -6.5502   -0.8681    4.4796
H   -5.7210   0.4400     3.6354
H   -6.7639   -0.6644    2.7409
