14
Energy (POTENTIAL) = -345.719632320 Eh
C   -1.6968    0.0685   -0.0001
C   -0.3000    0.0615   0.0004
C   0.4033     1.2594   -0.0001
C   -0.2894    2.4662   -0.0010
C   -1.6850    2.4790   -0.0014
C   -2.3877    1.2855   -0.0010
H   0.2288     -0.8840  0.0011
H   1.4850     1.2543   0.0003
H   0.2566     3.4005   -0.0013
H   -2.2163    3.4213   -0.0022
H   -3.4693    1.2754   -0.0014
C   -2.4231    -1.2136  0.0004
O   -3.6322    -1.3279  0.0006
H   -1.7754    -2.1108  0.0016
