43
Energy (POTENTIAL) = -697.073287438 Eh
C   2.4227   1.5992    -0.2515
C   1.0419   1.7454    -0.3175
C   0.2002   0.6337    -0.2133
C   0.7689   -0.6351   -0.0375
C   2.1461   -0.7784   0.0276
C   2.9777   0.3363    -0.0785
H   0.6085   2.7291    -0.4509
H   0.1289   -1.5025   0.0445
H   4.0520   0.2177    -0.0265
N   -2.1059  -0.0960   -0.2312
C   -3.5185  0.2377    -0.2846
H   -3.6822  1.2993    -0.5144
H   -3.9658  -0.3486   -1.0926
H   -1.9307  -2.2909   -0.5185
H   -1.8530  -3.6927   -1.3578
C   -1.2539  0.8420    -0.2861
H   -1.5701  1.8875    -0.3916
C   -4.2147  -0.1257   1.0282
H   -3.8150  0.5039    1.8286
H   -3.9638  -1.1564   1.2880
C   -5.7326  0.0288    0.9518
H   -6.1112  -0.5786   0.1245
H   -5.9827  1.0664    0.7111
H   3.0623   2.4679    -0.3341
H   2.5770   -1.7619   0.1625
C   -2.9234  -3.8351   0.3835
H   -2.7286  -4.8936   0.5800
H   -2.8957  -3.3329   1.3543
C   -4.3217  -3.6848   -0.2207
H   -4.3591  -4.2290   -1.1708
H   -4.4918  -2.6314   -0.4608
C   -5.4350  -4.1813   0.7010
H   -5.3752  -3.6460   1.6536
H   -5.2692  -5.2378   0.9335
N   -1.8232  -3.2987   -0.4233
C   -6.8300  -4.0016   0.1063
H   -7.6052  -4.3622   0.7855
H   -7.0351  -2.9489   -0.1020
H   -6.9301  -4.5497   -0.8338
C   -6.4326  -0.3812   2.2450
H   -7.5155  -0.2684   2.1664
H   -6.2241  -1.4254   2.4888
H   -6.0948  0.2283    3.0866
