49
Energy (POTENTIAL) = -850.037095890 Eh
C   0.6333    -0.7437    -0.2808
C   0.2721    -0.0196    0.8623
C   1.2442    0.4324     1.7398
C   2.5916    0.1698     1.4937
C   2.9614    -0.5502    0.3634
C   1.9870    -1.0039    -0.5182
C   -0.3538   -1.2066    -1.2665
H   -0.7696   0.1946     1.0475
H   2.2736    -1.5586    -1.4031
H   3.3473    0.5289     2.1797
N   -1.5994   -0.9844    -1.1817
C   -2.4648   -1.4728    -2.2418
H   -2.6608   0.6770     -0.2441
C   -3.5642   -2.3777    -1.6889
H   -1.8996   -2.0002    -3.0216
H   -2.9295   -0.5999    -2.7096
H   -4.0682   -1.8623    -0.8668
H   -3.1080   -3.2754    -1.2609
O   0.6495    2.1712     -2.0072
H   0.0647    -1.7600    -2.1159
H   1.1362    1.4622     -1.5749
O   -0.8461   3.2768     0.0739
H   0.1390    2.5833     -1.2810
H   -1.1715   4.1628     -0.1203
H   -1.6557   2.6877     0.0631
H   -3.6477   1.6071     0.6805
H   0.9558    0.9997     2.6147
H   4.0052    -0.7556    0.1663
C   -4.5860   -2.7697    -2.7547
H   -5.0078   -1.8611    -3.1952
H   -4.0787   -3.2978    -3.5676
N   -3.0268   1.6209     -0.1221
C   -3.7614   2.0237     -1.3313
H   -3.0819   1.8977     -2.1773
H   -3.9799   3.0930     -1.2634
C   -5.0562   1.2533     -1.5802
H   -4.8388   0.1827     -1.5797
H   -5.7405   1.4303     -0.7433
C   -5.7429   1.6294     -2.8924
H   -5.0498   1.4559     -3.7212
H   -5.9614   2.7017     -2.8954
C   -5.7138   -3.6383    -2.2042
H   -6.2608   -3.1168    -1.4151
H   -6.4295   -3.9043    -2.9845
H   -5.3253   -4.5667    -1.7790
C   -7.0302   0.8438     -3.1321
H   -7.7549   1.0242     -2.3345
H   -7.4997   1.1225     -4.0773
H   -6.8335   -0.2307    -3.1614
