46
Energy (POTENTIAL) = -773.554713027 Eh
C    3.0949    2.4337     -0.3142
C    1.7819    2.6798     0.0708
C    0.8713    1.6287     0.2136
C    1.3028    0.3198     -0.0374
C    2.6114    0.0756     -0.4224
C    3.5125    1.1311     -0.5619
H    1.4566    3.6950     0.2625
H    0.6056    -0.4980    0.0714
H    4.5335    0.9359     -0.8626
N    -1.4000   1.0489     0.7960
H    -3.5883   -2.1199    1.0878
C    -2.7430   1.4608     1.1680
H    -3.0078   0.9294     2.0867
H    -2.7979   2.5378     1.3761
H    -1.5106   -1.0713    0.8426
N    -1.8064   -2.0349    0.6875
H    -4.7896   -3.0673    1.3063
C    -1.6103   -2.3922    -0.7252
H    -0.5511   -2.3807    -1.0136
H    -2.1067   -1.6284    -1.3281
C    -0.5097   1.9340     0.6182
H    -0.7319   2.9991     0.7597
O    -4.5679   -2.1332    1.2335
H    -1.2393   -2.6300    1.2821
C    -3.7484   1.0838     0.0782
H    -3.6551   0.0180     -0.1366
H    -3.4931   1.6216     -0.8400
C    -2.2075   -3.7579    -1.0437
H    -1.7489   -4.5105    -0.3923
H    -3.2732   -3.7399    -0.7988
C    -2.0214   -4.1690    -2.5034
H    -0.9534   -4.1895    -2.7414
H    -2.4658   -3.4066    -3.1508
C    -5.1905   1.3913     0.4764
H    -5.4272   0.8486     1.3953
H    -5.2885   2.4568     0.7064
H    2.9340    -0.9390    -0.6165
H    3.7895    3.2565     -0.4204
C    -2.6398   -5.5289    -2.8201
H    -2.4965   -5.8001    -3.8679
H    -2.1919   -6.3164    -2.2090
H    -3.7143   -5.5274    -2.6209
C    -6.1912   1.0061     -0.6105
H    -6.1408   -0.0639    -0.8236
H    -7.2153   1.2377     -0.3106
H    -5.9893   1.5415     -1.5416
