33
Energy (POTENTIAL) = -636.118279666 Eh
C   0.2308   -0.5550    0.3711
C   1.3677   -1.3621    0.4792
C   2.6305   -0.8463    0.2145
C   2.7721   0.4878     -0.1512
C   1.6467   1.3057     -0.2435
C   0.3854   0.7919     0.0175
C   -1.0827  -1.1599    0.6268
H   1.2567   -2.4011    0.7637
H   -0.4795  1.4351     -0.0468
H   3.7540   0.8927     -0.3573
N   -2.1874  -0.6138    0.3217
C   -3.4326  -1.2963    0.6380
H   -2.4957  0.7885     -0.7463
C   -4.2936  -0.4411    1.5682
H   -3.2513  -2.2809    1.0853
H   -3.9707  -1.4513    -0.3021
H   -4.4234  0.5483     1.1208
H   -3.7558  -0.2910    2.5090
O   -0.5451  1.0395     -3.2159
H   -1.0611  -2.1488    1.0974
H   0.1353   0.6685     -2.6449
O   -2.6319  1.5452     -1.3717
H   -1.2781  1.2471     -2.6065
H   -3.5108  1.4188     -1.7466
H   3.5010   -1.4835    0.2941
H   1.7538   2.3460     -0.5201
C   -5.6595  -1.0658    1.8472
H   -6.1879  -1.2121    0.9003
H   -5.5221  -2.0613    2.2798
C   -6.5141  -0.2154    2.7841
H   -6.6884  0.7777     2.3634
H   -7.4873  -0.6759    2.9642
H   -6.0242  -0.0830    3.7516
