27
Energy (POTENTIAL) = -483.158752526 Eh
C   -8.8986    1.6627   2.8139
C   -9.6353    2.7188   3.3382
C   -9.0674    3.9849   3.4242
C   -7.7575    4.2095   2.9912
C   -7.0242    3.1393   2.4636
C   -7.5916    1.8776   2.3766
H   -9.3379    0.6763   2.7444
H   -9.6407    4.8087   3.8315
H   -6.0112    3.3109   2.1270
C   -7.1935    5.5638   3.1051
H   -7.8801    6.3226   3.5023
N   -6.0045    5.8587   2.7778
C   -5.5585    7.2299   2.9558
C   -4.4166    7.3067   3.9707
H   -4.7796    6.9432   4.9370
H   -3.6184    6.6271   3.6599
H   -5.1962    7.5897   1.9881
H   -6.3791    7.8901   3.2695
C   -3.8615    8.7217   4.1288
H   -3.4892    9.0733   3.1617
H   -4.6727    9.3996   4.4109
H   -7.0177    1.0566   1.9673
H   -10.6500   2.5580   3.6778
C   -2.7452    8.8055   5.1670
H   -1.9073    8.1579   4.8979
H   -2.3617    9.8236   5.2589
H   -3.0998    8.4937   6.1523
