36
Energy (POTENTIAL) = -712.598744597 Eh
C   -0.4082   0.3686    -0.5850
C   -1.2350   1.4749    -0.3884
C   -2.5664   1.3111    -0.0229
C   -3.0882   0.0319    0.1455
C   -2.2714   -1.0759   -0.0564
C   -0.9382   -0.9090   -0.4197
C   1.0578    0.5915    -0.9290
H   -0.8330   2.4720    -0.5261
H   -0.3169   -1.7786   -0.5798
H   -4.1251   -0.1000   0.4257
N   1.7861    0.8706    0.3248
C   3.1794    1.3313    0.1430
H   1.6459    -0.4842   1.4932
C   4.2036    0.2027    0.2306
H   3.3868    2.0595    0.9294
H   3.2862    1.8543    -0.8150
H   3.9929    -0.5366   -0.5435
H   4.0897    -0.3046   1.1928
O   1.6570    -0.4564   -1.6402
O   1.9634    -2.7987   -0.1432
H   1.7391    -1.2589   -1.0846
H   2.8788    -3.0975   -0.1940
O   1.5925    -1.2900   2.0773
H   1.8649    -2.3964   0.7503
H   0.6742    -1.3309   2.3699
H   1.1270    1.4573    -1.5991
H   1.2669    1.5833    0.8249
C   5.6391    0.7047    0.0836
H   5.8382    1.4626    0.8479
H   5.7504    1.2064    -0.8827
H   -2.6720   -2.0740   0.0654
H   -3.1963   2.1788    0.1243
C   6.6694    -0.4166   0.1980
H   7.6881    -0.0373   0.0968
H   6.5958    -0.9195   1.1653
H   6.5175    -1.1708   -0.5781
