49
Energy (POTENTIAL) = -850.028529639 Eh
C     0.8612     0.0938    -0.2614
C     0.6479     1.1540    0.6153
C     1.2500     1.1618    1.8710
C     2.0725     0.1102    2.2592
C     2.2916     -0.9515   1.3845
C     1.6874     -0.9583   0.1337
C     0.1731     0.0230    -1.6136
H     0.0100     1.9736    0.3168
H     1.8509     -1.7880   -0.5427
H     2.5425     0.1173    3.2340
N     -0.9725    -0.8135   -1.5324
C     -1.7298    -0.9993   -2.7673
H     -1.5786    -0.5377   -0.7552
C     -2.8208    -2.0464   -2.5765
H     -1.0364    -1.3236   -3.5497
H     -2.1829    -0.0636   -3.1207
H     -3.4758    -1.7317   -1.7581
H     -2.3597    -2.9861   -2.2591
O     -0.2016    1.3529    -2.0932
H     0.8630     -0.3924   -2.3554
H     0.5969     1.8800    -2.2267
O     -2.5788    2.5689    -1.3106
H     -1.7479    2.1499    -1.6076
H     -3.2547    2.2157    -1.8996
H     2.9324     -1.7729   1.6779
H     1.0743     1.9905    2.5448
C     -3.6590    -2.2781   -3.8325
H     -4.1007    -1.3296   -4.1531
H     -3.0065    -2.6035   -4.6487
N     -2.7961    0.2277    0.7343
H     -2.7177    1.1664    0.3524
H     -2.3673    0.2366    1.6531
C     -4.2069    -0.1574   0.8277
H     -4.6223    -0.1438   -0.1840
H     -4.2577    -1.1958   1.1670
C     -5.0682    0.7193    1.7388
H     -5.0073    1.7564    1.3919
H     -4.6442    0.7037    2.7489
C     -6.5314    0.2800    1.7911
H     -6.9482    0.2970    0.7791
H     -6.5831    -0.7608   2.1256
C     -7.3867    1.1520    2.7078
H     -7.3752    2.1949    2.3817
H     -8.4267    0.8198    2.7208
H     -7.0163    1.1241    3.7355
C     -4.7659    -3.3087   -3.6219
H     -5.4529    -2.9912   -2.8336
H     -5.3506    -3.4606   -4.5313
H     -4.3515    -4.2758   -3.3270
