32
Energy (POTENTIAL) = -427.816638070 Eh
C   -3.0518   -0.6019    -0.8374
H   -2.1847   -0.8659    -1.4509
H   -3.3351   0.4144     -1.1273
C   -2.6470   -0.6165    0.6355
H   -3.5088   -0.3378    1.2523
H   -2.3724   -1.6323    0.9290
C   -1.4866   0.3190     0.9512
H   -1.7520   1.3393     0.6426
H   -0.6147   0.0268     0.3603
N   -1.1148   0.2334     2.3714
H   -0.3523   0.8703     2.5751
H   -1.8941   0.5290     2.9505
H   -0.3541   -1.7705    2.8251
C   -3.3606   -4.5695    2.7887
H   -2.9793   -5.5939    2.8461
H   -3.5614   -4.3762    1.7305
C   -2.2868   -3.6020    3.2836
H   -2.6678   -2.5775    3.2222
H   -2.0762   -3.7897    4.3409
C   -0.9830   -3.6919    2.4983
H   -1.2064   -3.5700    1.4280
H   -0.5610   -4.6945    2.6133
N   -0.0052   -2.7152    2.9951
H   0.8579    -2.7983    2.4687
C   -4.6640   -4.4658    3.5775
H   -5.0878   -3.4611    3.5052
H   -5.4133   -5.1689    3.2081
H   -4.5018   -4.6795    4.6368
C   -4.2009   -1.5604    -1.1427
H   -4.4743   -1.5349    -2.1994
H   -3.9298   -2.5894    -0.8943
H   -5.0910   -1.3052    -0.5625
