19
Energy (POTENTIAL) = -290.385672764 Eh
C   1.5520     -1.8817     -3.9961
C   2.2446     -1.2857     -2.7766
H   2.0260     -0.2166     -2.7189
H   3.3314     -1.3845     -2.8877
H   0.4708     -1.7755     -3.8743
H   1.7569     -2.9575     -4.0319
H   3.0773     -1.3492     -5.4216
N   1.7505     -1.9096     -1.5360
O   -1.0339    -1.3887     -1.5239
H   -1.0643    -0.4583     -1.7705
H   -0.0702    -1.5965     -1.4782
C   1.9944     -1.2385     -5.3093
H   1.7982     -0.1626     -5.2670
H   2.2199     -1.5117     -0.7295
H   1.9727     -2.9002     -1.5355
C   1.2919     -1.8361     -6.5263
H   1.6219     -1.3607     -7.4520
H   1.4949     -2.9063     -6.6112
H   0.2089     -1.7104     -6.4553
