22
Energy (POTENTIAL) = -366.866983514 Eh
N   0.0780    -1.8566   -2.4095
C   1.1139    -1.9652   -3.4538
C   2.1930    -0.9080   -3.2588
H   2.5855    -0.9859   -2.2424
H   1.7421    0.0863    -3.3486
H   1.5571    -2.9609   -3.3734
H   0.6948    -1.8819   -4.4632
H   -0.6552   -2.5403   -2.5656
H   -0.3664   -0.9449   -2.4560
O   3.9011    -3.1801   -1.1917
H   3.0471    -2.9378   -0.7806
H   3.6930    -3.2972   -2.1241
O   1.4396    -2.4293   -0.0633
H   1.5667    -1.6048   0.4201
H   0.8885    -2.1837   -0.8568
C   3.3426    -1.0378   -4.2565
H   3.7648    -2.0453   -4.1880
H   2.9561    -0.9365   -5.2751
C   4.4476    -0.0119   -4.0192
H   4.8827    -0.1326   -3.0245
H   5.2522    -0.1154   -4.7499
H   4.0615    1.0077    -4.0924
