16
Energy (POTENTIAL) = -213.904198497 Eh
C   -3.5451    -1.0834    -0.0000
H   -3.2750    -2.1440    0.0064
H   -3.0914    -0.6563    -0.8997
C   -2.9526    -0.4069    1.2354
H   -3.2206    0.6558     1.2297
H   -3.3960    -0.8337    2.1401
C   -1.4365    -0.5351    1.3223
H   -0.9910    -0.1276    0.4038
H   -1.1656    -1.5937    1.3588
N   -0.9238    0.1047     2.5431
H   0.0838     -0.0023    2.5908
H   -1.0928    1.1046     2.4948
C   -5.0638    -0.9454    -0.0816
H   -5.3616    0.1054     -0.1187
H   -5.4630    -1.4356    -0.9718
H   -5.5467    -1.3941    0.7898
