36
Energy (POTENTIAL) = -712.579697000 Eh
C    -0.5939   0.3945     -0.5285
C    -1.4928   1.4409     -0.3229
C    -2.8160   1.1811     0.0165
C    -3.2521   -0.1335    0.1481
C    -2.3596   -1.1805    -0.0614
C    -1.0357   -0.9211    -0.3996
C    0.8508    0.7205     -0.8785
H    -1.1572   2.4653     -0.4361
H    -0.3485   -1.7391    -0.5598
H    -4.2821   -0.3409    0.4069
N    1.5813    1.0049     0.4461
C    3.0310    1.3328     0.3191
H    1.4962    0.1216     1.0892
C    3.3007    2.6373     -0.4127
H    3.4972    0.4919     -0.1883
H    3.4203    1.3722     1.3363
H    2.7349    3.4448     0.0631
H    2.9496    2.5657     -1.4443
O    1.5351    -0.2171    -1.6019
O    1.8677    -2.3396    -0.2423
H    1.6702    -1.1010    -1.0816
H    2.7592    -2.6913    -0.3251
O    1.5697    -1.1856    1.8620
H    1.7338    -1.8270    0.8893
H    0.7063    -1.4239    2.2149
H    0.8691    1.6615     -1.4292
H    1.0996    1.7702     0.9170
H    -3.5056   2.0011     0.1687
H    -2.6953   -2.2049    0.0349
C    4.7899    2.9846     -0.4118
H    5.3483    2.1659     -0.8746
H    5.1438    3.0554     0.6208
C    5.0883    4.2885     -1.1469
H    4.5660    5.1293     -0.6844
H    6.1561    4.5140     -1.1365
H    4.7696    4.2334     -2.1903
