33
Energy (POTENTIAL) = -636.091079011 Eh
C    1.8080    1.4952    0.0770
C    1.2168    1.1828    1.2975
C    1.8103    0.2578    2.1545
C    3.0046    -0.3553   1.7788
C    3.5930    -0.0481   0.5576
C    2.9980    0.8783    -0.2953
H    0.2932    1.6686    1.5902
H    3.4587    -1.0786   2.4412
H    3.4621    1.1204    -1.2424
N    0.2495    -1.3394   3.2126
H    0.9695    -2.1354   3.3128
C    -0.8269   -1.5540   4.2180
H    -1.1026   -2.6079   4.1737
H    -0.3787   -1.3664   5.1925
H    -0.1347   -1.3191   2.2706
H    2.2018    -3.3085   4.6653
H    2.2838    -1.4859   4.3467
C    1.1439    -0.0865   3.4787
H    0.4520    0.7161    3.7478
O    1.9797    -0.3907   4.5055
C    -2.0434   -0.6729   3.9806
H    -1.7496   0.3792    3.9944
H    -2.4469   -0.8772   2.9837
O    2.3392    -2.7117   3.9229
C    -3.1279   -0.9089   5.0319
H    -2.7081   -0.7269   6.0253
H    -3.4281   -1.9606   5.0113
H    4.5190    -0.5299   0.2717
H    1.3445    2.2213    -0.5781
C    -4.3515   -0.0205   4.8231
H    -5.1106   -0.2051   5.5851
H    -4.0814   1.0370    4.8711
H    -4.8086   -0.2012   3.8473
