30
Energy (POTENTIAL) = -559.563968031 Eh
C   3.3622    1.9710    -0.5566
C   1.9990    2.2260    -0.6114
C   1.1287    1.3095    -1.2136
C   1.6550    0.1494    -1.8009
C   3.0158    -0.0951   -1.7534
C   3.8733    0.8088    -1.1236
H   1.5968    3.1290    -0.1708
H   1.0044    -0.5528   -2.3021
H   4.9360    0.6089    -1.0868
N   -1.2179   0.8862    -1.7184
C   -2.6269   1.2651    -1.7801
H   -2.7007   2.3187    -1.5098
H   -2.9580   1.1633    -2.8159
H   -1.0256   -0.1149   -1.6534
H   -0.2220   -0.7445   1.1179
C   -0.2806   1.6399    -1.2485
H   -0.5615   2.6494    -0.9692
O   -0.6267   -0.2131   0.4210
C   -3.4877   0.4023    -0.8600
H   -3.0310   0.3958    0.1305
H   -3.4567   -0.6323   -1.2144
H   4.0244    2.6794    -0.0773
H   3.4166    -0.9915   -2.2075
C   -4.9351   0.8882    -0.8177
H   -5.3492   0.9001    -1.8309
H   -4.9578   1.9233    -0.4634
C   -5.8142   0.0230    0.0825
H   -6.8438   0.3853    0.1014
H   -5.8320   -1.0131   -0.2635
H   -5.4416   0.0214    1.1093
