46
Energy (POTENTIAL) = -773.501454343 Eh
C    3.2275    1.0516    0.8225
C    1.8833    1.0773    1.1730
C    0.8915    0.7418    0.2467
C    1.2806    0.3998    -1.0501
C    2.6255    0.3645    -1.4013
C    3.6051    0.6876    -0.4670
H    1.5951    1.3586    2.1788
H    0.5244    0.1824    -1.7909
H    4.6513    0.6660    -0.7432
N    -1.4819   0.6821    -0.2748
H    -0.8491   -1.8717   0.2599
C    -2.8400   0.9615    0.1753
H    -3.2186   0.1466    0.8103
H    -2.8611   1.8645    0.8025
H    -1.4050   -0.6961   -0.7497
N    -1.2617   -1.8613   -0.6959
H    0.2112    -0.8179   2.1831
C    -2.5223   -2.6288   -0.7696
H    -2.9503   -2.4833   -1.7619
H    -3.2085   -2.1870   -0.0471
C    -0.5422   0.7670    0.6654
H    -0.7285   1.4227    1.5170
O    -0.6086   -0.7919   1.6778
H    -0.5791   -2.1908   -1.3722
C    -3.7870   1.1463    -1.0057
H    -3.7426   0.2537    -1.6391
H    -3.4282   1.9774    -1.6213
C    -2.3220   -4.1098    -0.4795
H    -1.6015   -4.5212    -1.1938
H    -1.8777   -4.2187    0.5145
H    3.9799    1.3179     1.5537
H    2.9091    0.0947     -2.4107
C    -5.2339   1.3997     -0.5877
H    -5.5818   0.5664     0.0309
H    -5.2752   2.2897     0.0480
C    -3.6252   -4.9045    -0.5513
H    -4.0680   -4.7825    -1.5445
H    -4.3424   -4.4835    0.1593
C    -3.4289   -6.3902    -0.2590
H    -4.3730   -6.9347    -0.3204
H    -2.7362   -6.8436    -0.9720
H    -3.0205   -6.5437    0.7426
C    -6.1772   1.5798     -1.7751
H    -7.2030   1.7635     -1.4490
H    -5.8708   2.4245     -2.3971
H    -6.1858   0.6902     -2.4101
