36
Energy (POTENTIAL) = -712.566653188 Eh
C    -3.5036   1.0547    -0.2586
C    -4.0465   1.8041    0.7914
C    -3.2761   2.0924    1.9070
C    -1.9613   1.6381    1.9903
C    -1.4142   0.8974    0.9479
C    -2.1803   0.6109    -0.1739
C    -4.2619   0.7105    -1.4598
H    -5.0581   2.1793    0.7267
H    -1.7559   0.0418    -0.9910
H    -1.3652   1.8663    2.8639
N    -5.5573   0.7174    -1.5218
C    -6.3009   0.4052    -2.7399
H    -6.1003   1.2442    -0.8276
C    -7.5961   -0.3317   -2.4254
H    -5.6587   -0.1864   -3.3920
H    -6.5121   1.3517    -3.2436
H    -8.1925   0.2782    -1.7417
H    -7.3622   -1.2634   -1.9026
O    -3.7182   2.5174    -2.6784
H    -3.7385   0.1822    -2.2408
H    -2.9731   2.9144    -2.2155
O    -5.6808   3.8296    -2.1052
H    -4.6691   3.1812    -2.4108
H    -6.1265   4.0800    -2.9196
O    -7.2236   2.6485    -0.4294
H    -6.6602   3.1995    -1.0814
H    -7.3321   3.1810    0.3644
C    -8.4068   -0.6320   -3.6853
H    -8.6161   0.3051    -4.2094
H    -7.8044   -1.2394   -4.3675
H    -0.3925   0.5472    1.0068
H    -3.6988   2.6768    2.7132
C    -9.7184   -1.3516   -3.3817
H    -10.2794  -1.5579   -4.2950
H    -9.5379   -2.3049   -2.8793
H    -10.3546  -0.7490   -2.7294
