9
Energy (POTENTIAL) = -229.424938835 Eh
O   -3.9675   2.9517   -1.8093
H   -3.2529   3.5904   -1.9169
O   -6.0171   3.2425   -3.7022
H   -4.4581   2.9700   -2.6536
H   -5.9509   4.0363   -4.2463
O   -6.4731   3.9166   -1.0186
H   -6.4430   3.5369   -2.8738
H   -5.5385   3.6329   -1.0095
H   -6.9444   3.2446   -0.5117
